22

C -0.828553 -1.436417 1.807421
C -0.345427 -0.029981 1.464231
N 0.041322 0.045870 0.036298
C 1.451205 -0.365243 -0.157450
C 1.630089 -1.011703 -1.528341
C -0.199476 1.401282 -0.510692
C -1.635928 1.521888 -1.012004
H -1.162896 -1.467847 2.865880
H -1.683567 -1.712572 1.154393
H -0.015603 -2.179359 1.673208
H 0.500102 0.256233 2.130525
H -1.184066 0.663578 1.694917
H 1.760929 -1.121164 0.597673
H 2.145541 0.499081 -0.049617
H 1.410504 -0.288224 -2.340268
H 0.950102 -1.884460 -1.626670
H 2.678063 -1.360917 -1.641966
H 0.463162 1.612085 -1.379041
H 0.006944 2.189243 0.249106
H -1.833889 0.747078 -1.782871
H -2.358793 1.397603 -0.179608
H -1.789765 2.523949 -1.465124
